<?xml version='1.0' encoding='UTF-8'?>
<edges>
  <edge id="-0" to="Custom0" from="Custom1" numLanes="1" width="5"/>
  <edge id="-1" to="Custom2" from="Custom3" numLanes="1" width="5"/>
</edges>
